Version 4
SHEET 1 1220 680
WIRE 848 -1040 528 -1040
WIRE 528 -960 528 -1040
WIRE 848 -944 848 -1040
WIRE 528 -864 528 -880
WIRE 848 -784 848 -864
WIRE 848 -656 848 -720
WIRE 848 -528 848 -592
WIRE 848 -400 848 -464
WIRE 848 -272 848 -336
WIRE 848 -128 848 -208
WIRE 848 32 848 -64
WIRE 272 80 208 80
WIRE -160 96 -224 96
WIRE 80 96 -80 96
WIRE 608 112 208 112
WIRE 832 112 832 96
WIRE 832 112 688 112
WIRE -224 128 -224 96
WIRE 80 128 16 128
WIRE 864 128 864 96
WIRE 864 128 848 128
WIRE 416 144 208 144
WIRE 416 192 416 144
WIRE 848 192 848 128
WIRE -224 240 -224 208
WIRE 16 240 16 128
WIRE 272 240 272 80
WIRE 416 304 416 272
FLAG 16 240 0
FLAG -224 240 0
FLAG 272 240 0
FLAG 416 304 0
FLAG 848 192 0
FLAG 528 -864 0
SYMBOL AutoGenerated\\UCC27517_TRANS 144 112 R0
SYMATTR InstName U1
SYMBOL Misc\\signal -224 112 R0
WINDOW 123 0 0 Left 0
WINDOW 39 0 0 Left 0
SYMATTR InstName V1
SYMATTR Value PULSE(0 3.3 0 1n 1n 1u 2u)
SYMBOL res -64 80 R90
WINDOW 0 0 56 VBottom 2
WINDOW 3 32 56 VTop 2
SYMATTR InstName R1
SYMATTR Value 30
SYMBOL voltage 416 176 R0
WINDOW 123 0 0 Left 0
WINDOW 39 0 0 Left 0
SYMATTR InstName V2
SYMATTR Value 5
SYMBOL res 704 96 R90
WINDOW 0 0 56 VBottom 2
WINDOW 3 32 56 VTop 2
SYMATTR InstName R2
SYMATTR Value 1m
SYMBOL LED 832 -128 R0
SYMATTR InstName D1
SYMBOL LED 832 -272 R0
SYMATTR InstName D2
SYMBOL LED 832 -400 R0
SYMATTR InstName D3
SYMBOL LED 832 -528 R0
SYMATTR InstName D4
SYMBOL LED 832 -656 R0
SYMATTR InstName D5
SYMBOL LED 832 -784 R0
SYMATTR InstName D6
SYMBOL res 832 -960 R0
SYMATTR InstName R3
SYMATTR Value 7
SYMBOL voltage 528 -976 R0
WINDOW 123 0 0 Left 0
WINDOW 39 0 0 Left 0
SYMATTR InstName V3
SYMATTR Value 24
SYMBOL AutoGenerated\\AO3400 848 64 M90
SYMATTR InstName U2
TEXT -258 328 Left 2 !.tran 200u
