Version 4
SHEET 1 1844 680
WIRE 416 -48 0 -48
WIRE 544 -48 496 -48
WIRE 944 32 528 32
WIRE 1056 32 944 32
WIRE 944 48 944 32
WIRE 240 80 208 80
WIRE -80 96 -144 96
WIRE 0 96 0 -48
WIRE 80 96 0 96
WIRE 416 112 208 112
WIRE 544 112 544 -48
WIRE 544 112 496 112
WIRE 672 112 544 112
WIRE -144 128 -144 96
WIRE 80 128 64 128
WIRE 848 128 736 128
WIRE 944 128 944 112
WIRE 944 128 848 128
WIRE 1056 128 944 128
WIRE 1328 128 1328 32
WIRE 304 144 208 144
WIRE 528 144 528 32
WIRE 672 144 640 144
WIRE 848 160 848 128
WIRE 640 176 640 144
WIRE -144 240 -144 208
WIRE 64 240 64 128
WIRE 240 240 240 80
WIRE 304 240 304 224
WIRE 528 240 528 224
WIRE 848 272 848 240
FLAG 64 240 0
FLAG -144 240 0
FLAG 240 240 0
FLAG 304 240 0
FLAG 640 176 0
FLAG 528 240 0
FLAG 848 272 0
SYMBOL Misc\\signal -144 112 R0
WINDOW 123 0 0 Left 0
WINDOW 39 0 0 Left 0
WINDOW 3 -379 97 Left 2
SYMATTR InstName V1
SYMATTR Value PULSE(0 3.3 0 2n 2n 25u 50u)
SYMBOL res 16 80 R90
WINDOW 0 0 56 VBottom 2
WINDOW 3 32 56 VTop 2
SYMATTR InstName R1
SYMATTR Value 30
SYMBOL voltage 304 128 R0
WINDOW 123 0 0 Left 0
WINDOW 39 0 0 Left 0
SYMATTR InstName V2
SYMATTR Value 5
SYMBOL res 512 96 R90
WINDOW 0 0 56 VBottom 2
WINDOW 3 32 56 VTop 2
SYMATTR InstName R2
SYMATTR Value R=if(X<0.5,1G,1m)
SYMBOL LED 1200 112 R90
WINDOW 0 0 32 VBottom 2
WINDOW 3 72 32 VTop 2
SYMATTR InstName D1
SYMBOL LED 1264 112 R90
WINDOW 0 0 32 VBottom 2
WINDOW 3 72 32 VTop 2
SYMATTR InstName D2
SYMBOL LED 1328 112 R90
WINDOW 0 0 32 VBottom 2
WINDOW 3 72 32 VTop 2
SYMATTR InstName D3
SYMBOL LED 1264 48 R270
WINDOW 0 72 32 VTop 2
WINDOW 3 0 32 VBottom 2
SYMATTR InstName D4
SYMBOL LED 1200 48 R270
WINDOW 0 72 32 VTop 2
WINDOW 3 0 32 VBottom 2
SYMATTR InstName D5
SYMBOL LED 1136 48 R270
WINDOW 0 72 32 VTop 2
WINDOW 3 0 32 VBottom 2
SYMATTR InstName D6
SYMBOL res 1040 48 R270
WINDOW 0 32 56 VTop 2
WINDOW 3 0 56 VBottom 2
SYMATTR InstName R3
SYMATTR Value 7
SYMBOL voltage 528 128 R0
WINDOW 123 0 0 Left 0
WINDOW 39 0 0 Left 0
SYMATTR InstName V3
SYMATTR Value 24
SYMBOL AutoGenerated\\AO3400 704 128 M0
SYMATTR InstName U2
SYMBOL AutoGenerated\\UCC27517_TRANS 144 112 R0
SYMATTR InstName U3
SYMBOL ind 1152 112 R90
WINDOW 0 5 56 VBottom 2
WINDOW 3 32 56 VTop 2
SYMATTR InstName L1
SYMATTR Value 30n
SYMBOL diode 960 112 R180
WINDOW 0 24 64 Left 2
WINDOW 3 24 0 Left 2
SYMATTR InstName D7
SYMATTR Value RF081LAM2S
SYMBOL res 512 -64 R90
WINDOW 0 0 56 VBottom 2
WINDOW 3 32 56 VTop 2
SYMATTR InstName R4
SYMATTR Value R=if(X>0.5,1G,1m)
TEXT -256 328 Left 2 !.tran 200u
TEXT 1024 -104 Left 2 ;2.5A LED Strip + 2M Cable
TEXT 648 -104 Left 2 ;Mosfet
TEXT 104 -80 Left 2 ;5V Gate Driver
TEXT -208 -72 Left 2 ;MCU PWM Output
TEXT 1576 -24 Left 2 !.param X=1
RECTANGLE Normal 1408 240 1008 -80 2
RECTANGLE Normal 768 240 608 -80 2
RECTANGLE Normal 16 272 -208 -48 2
RECTANGLE Normal 368 272 32 -48 2
